71496458
  -OEChem-05042518132D

 70 73  0     1  0  0  0  0  0999 V2000
    5.9209    0.3295    0.0000 O   0  0  0  0  0  0  0  0  0  0  0  0
   10.1921   -0.5405    0.0000 O   0  0  0  0  0  0  0  0  0  0  0  0
    8.4993    2.6430    0.0000 N   0  0  3  0  0  0  0  0  0  0  0  0
    4.6783   -5.0821    0.0000 N   0  0  0  0  0  0  0  0  0  0  0  0
    7.4742    5.0821    0.0000 N   0  0  0  0  0  0  0  0  0  0  0  0
    7.2566   -1.1591    0.0000 N   0  0  0  0  0  0  0  0  0  0  0  0
    9.8349    1.1544    0.0000 N   0  0  0  0  0  0  0  0  0  0  0  0
    5.9674   -2.3159    0.0000 N   0  0  0  0  0  0  0  0  0  0  0  0
    5.6103   -0.6210    0.0000 N   0  0  0  0  0  0  0  0  0  0  0  0
    7.8314    3.3873    0.0000 C   0  0  0  0  0  0  0  0  0  0  0  0
    8.1886    1.6924    0.0000 C   0  0  0  0  0  0  0  0  0  0  0  0
    8.1421    4.3378    0.0000 C   0  0  0  0  0  0  0  0  0  0  0  0
    3.7321   -3.7773    0.0000 C   0  0  0  0  0  0  0  0  0  0  0  0
    3.7321   -4.7773    0.0000 C   0  0  0  0  0  0  0  0  0  0  0  0
    4.6783   -3.4726    0.0000 C   0  0  0  0  0  0  0  0  0  0  0  0
    8.8564    0.9481    0.0000 C   0  0  0  0  0  0  0  0  0  0  0  0
    7.2101    1.4862    0.0000 C   0  0  0  0  0  0  0  0  0  0  0  0
    5.2619   -4.2773    0.0000 C   0  0  0  0  0  0  0  0  0  0  0  0
    7.5673   -0.2086    0.0000 C   0  0  0  0  0  0  0  0  0  0  0  0
    9.4778    2.8492    0.0000 C   0  0  0  0  0  0  0  0  0  0  0  0
    6.8994    0.5357    0.0000 C   0  0  0  0  0  0  0  0  0  0  0  0
    8.5458   -0.0024    0.0000 C   0  0  0  0  0  0  0  0  0  0  0  0
    4.9889   -2.5221    0.0000 C   0  0  0  0  0  0  0  0  0  0  0  0
    2.8660   -3.2773    0.0000 C   0  0  0  0  0  0  0  0  0  0  0  0
    2.8660   -5.2773    0.0000 C   0  0  0  0  0  0  0  0  0  0  0  0
    4.9889   -6.0326    0.0000 C   0  0  0  0  0  0  0  0  0  0  0  0
    7.7849    6.0326    0.0000 C   0  0  0  0  0  0  0  0  0  0  0  0
    6.4957    4.8759    0.0000 C   0  0  0  0  0  0  0  0  0  0  0  0
    6.2781   -1.3654    0.0000 C   0  0  0  0  0  0  0  0  0  0  0  0
    2.0000   -3.7773    0.0000 C   0  0  0  0  0  0  0  0  0  0  0  0
    2.0000   -4.7773    0.0000 C   0  0  0  0  0  0  0  0  0  0  0  0
    4.3211   -1.7778    0.0000 C   0  0  0  0  0  0  0  0  0  0  0  0
    4.6318   -0.8273    0.0000 C   0  0  0  0  0  0  0  0  0  0  0  0
   10.5028    0.4100    0.0000 C   0  0  0  0  0  0  0  0  0  0  0  0
    5.2531    1.0738    0.0000 C   0  0  0  0  0  0  0  0  0  0  0  0
   11.4813    0.6163    0.0000 C   0  0  0  0  0  0  0  0  0  0  0  0
   12.1491   -0.1280    0.0000 C   0  0  0  0  0  0  0  0  0  0  0  0
    7.2845    3.6793    0.0000 H   0  0  0  0  0  0  0  0  0  0  0  0
    7.4489    2.8994    0.0000 H   0  0  0  0  0  0  0  0  0  0  0  0
    8.6890    4.0458    0.0000 H   0  0  0  0  0  0  0  0  0  0  0  0
    8.5246    4.8257    0.0000 H   0  0  0  0  0  0  0  0  0  0  0  0
    6.7960    1.9477    0.0000 H   0  0  0  0  0  0  0  0  0  0  0  0
    5.8819   -4.2773    0.0000 H   0  0  0  0  0  0  0  0  0  0  0  0
    9.6056    2.2425    0.0000 H   0  0  0  0  0  0  0  0  0  0  0  0
   10.0844    2.9770    0.0000 H   0  0  0  0  0  0  0  0  0  0  0  0
    9.3499    3.4558    0.0000 H   0  0  0  0  0  0  0  0  0  0  0  0
    8.9598   -0.4639    0.0000 H   0  0  0  0  0  0  0  0  0  0  0  0
    2.8660   -2.6573    0.0000 H   0  0  0  0  0  0  0  0  0  0  0  0
    2.8660   -5.8973    0.0000 H   0  0  0  0  0  0  0  0  0  0  0  0
    4.3996   -6.2252    0.0000 H   0  0  0  0  0  0  0  0  0  0  0  0
    5.1815   -6.6219    0.0000 H   0  0  0  0  0  0  0  0  0  0  0  0
    5.5783   -5.8400    0.0000 H   0  0  0  0  0  0  0  0  0  0  0  0
    7.6707   -1.6206    0.0000 H   0  0  0  0  0  0  0  0  0  0  0  0
   10.0276    1.7437    0.0000 H   0  0  0  0  0  0  0  0  0  0  0  0
    8.3742    5.8400    0.0000 H   0  0  0  0  0  0  0  0  0  0  0  0
    7.9775    6.6219    0.0000 H   0  0  0  0  0  0  0  0  0  0  0  0
    7.1956    6.2252    0.0000 H   0  0  0  0  0  0  0  0  0  0  0  0
    6.3679    5.4825    0.0000 H   0  0  0  0  0  0  0  0  0  0  0  0
    5.8891    4.7480    0.0000 H   0  0  0  0  0  0  0  0  0  0  0  0
    6.6236    4.2692    0.0000 H   0  0  0  0  0  0  0  0  0  0  0  0
    1.4631   -3.4673    0.0000 H   0  0  0  0  0  0  0  0  0  0  0  0
    1.4631   -5.0873    0.0000 H   0  0  0  0  0  0  0  0  0  0  0  0
    3.7144   -1.9056    0.0000 H   0  0  0  0  0  0  0  0  0  0  0  0
    4.2177   -0.3658    0.0000 H   0  0  0  0  0  0  0  0  0  0  0  0
    5.7145    1.4878    0.0000 H   0  0  0  0  0  0  0  0  0  0  0  0
    4.8390    1.5352    0.0000 H   0  0  0  0  0  0  0  0  0  0  0  0
    4.7916    0.6597    0.0000 H   0  0  0  0  0  0  0  0  0  0  0  0
   11.6739    1.2056    0.0000 H   0  0  0  0  0  0  0  0  0  0  0  0
   11.9565   -0.7174    0.0000 H   0  0  0  0  0  0  0  0  0  0  0  0
   12.7558   -0.0002    0.0000 H   0  0  0  0  0  0  0  0  0  0  0  0
  1 21  1  0  0  0  0
  1 35  1  0  0  0  0
  2 34  2  0  0  0  0
  3 10  1  0  0  0  0
  3 11  1  0  0  0  0
  3 20  1  0  0  0  0
  4 14  1  0  0  0  0
  4 18  1  0  0  0  0
  4 26  1  0  0  0  0
  5 12  1  0  0  0  0
  5 27  1  0  0  0  0
  5 28  1  0  0  0  0
  6 19  1  0  0  0  0
  6 29  1  0  0  0  0
  6 53  1  0  0  0  0
  7 16  1  0  0  0  0
  7 34  1  0  0  0  0
  7 54  1  0  0  0  0
  8 23  2  0  0  0  0
  8 29  1  0  0  0  0
  9 29  2  0  0  0  0
  9 33  1  0  0  0  0
 10 12  1  0  0  0  0
 10 38  1  0  0  0  0
 10 39  1  0  0  0  0
 11 16  1  0  0  0  0
 11 17  2  0  0  0  0
 12 40  1  0  0  0  0
 12 41  1  0  0  0  0
 13 14  1  0  0  0  0
 13 15  1  0  0  0  0
 13 24  2  0  0  0  0
 14 25  2  0  0  0  0
 15 18  2  0  0  0  0
 15 23  1  0  0  0  0
 16 22  2  0  0  0  0
 17 21  1  0  0  0  0
 17 42  1  0  0  0  0
 18 43  1  0  0  0  0
 19 21  2  0  0  0  0
 19 22  1  0  0  0  0
 20 44  1  0  0  0  0
 20 45  1  0  0  0  0
 20 46  1  0  0  0  0
 22 47  1  0  0  0  0
 23 32  1  0  0  0  0
 24 30  1  0  0  0  0
 24 48  1  0  0  0  0
 25 31  1  0  0  0  0
 25 49  1  0  0  0  0
 26 50  1  0  0  0  0
 26 51  1  0  0  0  0
 26 52  1  0  0  0  0
 27 55  1  0  0  0  0
 27 56  1  0  0  0  0
 27 57  1  0  0  0  0
 28 58  1  0  0  0  0
 28 59  1  0  0  0  0
 28 60  1  0  0  0  0
 30 31  2  0  0  0  0
 30 61  1  0  0  0  0
 31 62  1  0  0  0  0
 32 33  2  0  0  0  0
 32 63  1  0  0  0  0
 33 64  1  0  0  0  0
 34 36  1  0  0  0  0
 35 65  1  0  0  0  0
 35 66  1  0  0  0  0
 35 67  1  0  0  0  0
 36 37  2  0  0  0  0
 36 68  1  0  0  0  0
 37 69  1  0  0  0  0
 37 70  1  0  0  0  0
M  END
> <PUBCHEM_COMPOUND_CID>
71496458

> <PUBCHEM_COMPOUND_CANONICALIZED>
1

> <PUBCHEM_CACTVS_COMPLEXITY>
752

> <PUBCHEM_CACTVS_HBOND_ACCEPTOR>
7

> <PUBCHEM_CACTVS_HBOND_DONOR>
2

> <PUBCHEM_CACTVS_ROTATABLE_BOND>
10

> <PUBCHEM_CACTVS_SUBSKEYS>
AAADcfB7sAAAAAAAAAAAAAAAAAAAAWAAAAA8YIAAAAAAAFgB/AAAHgAQAAAADAzBngY/1vfMFACoAzV3dACCiCkxIqAJ2CA/fNiObuLE+duVNChu1BvY6Kew0MMOgECAAgQCECAAgQAECAQgQAAAAAAAAA==

> <PUBCHEM_IUPAC_OPENEYE_NAME>
N-[2-[2-(dimethylamino)ethyl-methyl-amino]-4-methoxy-5-[[4-(1-methylindol-3-yl)pyrimidin-2-yl]amino]phenyl]prop-2-enamide

> <PUBCHEM_IUPAC_CAS_NAME>
N-[2-[2-(dimethylamino)ethyl-methylamino]-4-methoxy-5-[[4-(1-methyl-3-indolyl)-2-pyrimidinyl]amino]phenyl]-2-propenamide

> <PUBCHEM_IUPAC_NAME_MARKUP>
<I>N</I>-[2-[2-(dimethylamino)ethyl-methylamino]-4-methoxy-5-[[4-(1-methylindol-3-yl)pyrimidin-2-yl]amino]phenyl]prop-2-enamide

> <PUBCHEM_IUPAC_NAME>
N-[2-[2-(dimethylamino)ethyl-methylamino]-4-methoxy-5-[[4-(1-methylindol-3-yl)pyrimidin-2-yl]amino]phenyl]prop-2-enamide

> <PUBCHEM_IUPAC_SYSTEMATIC_NAME>
N-[2-[2-(dimethylamino)ethyl-methyl-amino]-4-methoxy-5-[[4-(1-methylindol-3-yl)pyrimidin-2-yl]amino]phenyl]prop-2-enamide

> <PUBCHEM_IUPAC_TRADITIONAL_NAME>
N-[2-[2-(dimethylamino)ethyl-methyl-amino]-4-methoxy-5-[[4-(1-methylindol-3-yl)pyrimidin-2-yl]amino]phenyl]acrylamide

> <PUBCHEM_IUPAC_INCHI>
InChI=1S/C28H33N7O2/c1-7-27(36)30-22-16-23(26(37-6)17-25(22)34(4)15-14-33(2)3)32-28-29-13-12-21(31-28)20-18-35(5)24-11-9-8-10-19(20)24/h7-13,16-18H,1,14-15H2,2-6H3,(H,30,36)(H,29,31,32)

> <PUBCHEM_IUPAC_INCHIKEY>
DUYJMQONPNNFPI-UHFFFAOYSA-N

> <PUBCHEM_XLOGP3_AA>
3.7

> <PUBCHEM_EXACT_MASS>
499.26957332

> <PUBCHEM_MOLECULAR_FORMULA>
C28H33N7O2

> <PUBCHEM_MOLECULAR_WEIGHT>
499.6

> <PUBCHEM_REFERENCE_STANDARDIZATION>
Bypass - this structure was created from CID 78357807

> <PUBCHEM_SMILES>
CN1C=C(C2=CC=CC=C21)C3=NC(=NC=C3)NC4=C(C=C(C(=C4)NC(=O)C=C)N(C)CCN(C)C)OC

> <PUBCHEM_OPENEYE_CAN_SMILES>
CN1C=C(C2=CC=CC=C21)C3=NC(=NC=C3)NC4=C(C=C(C(=C4)NC(=O)C=C)N(C)CCN(C)C)OC

> <PUBCHEM_OPENEYE_ISO_SMILES>
CN1C=C(C2=CC=CC=C21)C3=NC(=NC=C3)NC4=C(C=C(C(=C4)NC(=O)C=C)N(C)CCN(C)C)OC

> <PUBCHEM_CACTVS_TPSA>
87.6

> <PUBCHEM_MONOISOTOPIC_WEIGHT>
499.26957332

> <PUBCHEM_TOTAL_CHARGE>
0

> <PUBCHEM_HEAVY_ATOM_COUNT>
37

> <PUBCHEM_ATOM_DEF_STEREO_COUNT>
0

> <PUBCHEM_ATOM_UDEF_STEREO_COUNT>
0

> <PUBCHEM_BOND_DEF_STEREO_COUNT>
0

> <PUBCHEM_BOND_UDEF_STEREO_COUNT>
0

> <PUBCHEM_ISOTOPIC_ATOM_COUNT>
0

> <PUBCHEM_COMPONENT_COUNT>
1

> <PUBCHEM_CACTVS_TAUTO_COUNT>
-1

> <PUBCHEM_COORDINATE_TYPE>
1
5
255

> <PUBCHEM_BONDANNOTATIONS>
11  16  8
11  17  8
13  14  8
13  15  8
13  24  8
14  25  8
15  18  8
16  22  8
17  21  8
19  21  8
19  22  8
23  32  8
24  30  8
25  31  8
30  31  8
32  33  8
4  14  8
4  18  8
8  23  8
8  29  8
9  29  8
9  33  8

$$$$
